15

Pa        0.702607   -0.066588    0.026127
O        1.747862   -1.972871   -0.136927
H       -0.175626   -0.129706    2.676877
O        0.782687    0.253022   -1.792972
O        0.490065   -0.510595    2.095827
O        1.581230    2.481989   -0.215275
H        1.235020    3.179934    0.350178
H        1.338979    2.722330   -1.115556
H        2.040504   -2.359120   -0.964783
O       -1.272498   -1.268102   -0.275650
C       -2.433014    0.777213    0.108409
C       -2.444281   -0.744279   -0.248805
O       -1.249586    1.246042    0.277868
O       -3.475462    1.401630    0.205579
O       -3.493344   -1.325062   -0.468693
