15

Pa        0.682697   -0.091666   -0.018229
O        2.389918   -1.442330    0.173761
H       -0.196280    0.338297    2.605216
O        1.009701    0.240890   -1.819141
O        0.585225    0.079784    2.099376
O        0.921312    2.549664   -0.047718
H       -0.053837    2.574852    0.068467
H        1.037833    2.609955   -1.007370
H        2.912040   -1.748970   -0.576129
O       -1.164340   -1.381659   -0.148951
C       -2.495219    0.622646   -0.003405
C       -2.402815   -0.937956   -0.125086
O       -1.317891    1.197847    0.038660
O       -3.573099    1.186831    0.052405
O       -3.405454   -1.623608   -0.180941
