15

Pa        0.677035   -0.099389   -0.001106
O        2.377945   -1.467381    0.021307
H       -0.121662    0.218258    2.638836
O        1.005090    0.381148   -1.796391
O        0.667594   -0.067913    2.148251
O        0.984782    2.592208   -0.114418
H        0.010314    2.642332    0.032925
H        1.053897    2.370171   -1.070452
H        2.842431   -1.660879   -0.808548
O       -1.190218   -1.366029   -0.220033
C       -2.505846    0.643026    0.042108
C       -2.434586   -0.921692   -0.180197
O       -1.305209    1.181837    0.157971
O       -3.567650    1.240138    0.106985
O       -3.441401   -1.600698   -0.286621
