15

Pa        0.697754   -0.084616   -0.040710
O        1.690362   -2.031419    0.206409
H       -0.176040    0.411881    2.649866
O        0.823755   -0.028687   -1.892557
O        0.536301    0.123419    2.062533
O        1.638162    2.336822    0.051015
H        1.462041    2.874084    0.835521
H        1.547647    2.934219   -0.703798
H        1.965570   -2.606050   -0.518693
O       -1.293684   -1.303698   -0.012621
C       -2.432762    0.801776   -0.082181
C       -2.467602   -0.755473   -0.007522
O       -1.237208    1.289942   -0.110052
O       -3.481057    1.443414   -0.108037
O       -3.538209   -1.353777    0.050796
