15

Pa        0.654360   -0.097863   -0.048053
O        1.925057   -1.862767    0.286325
H       -0.135214    0.636895    2.595799
O        0.795319   -0.130793   -1.909956
O        0.539104    0.191854    2.069745
O        2.027418    2.125121    0.017480
H        2.056405    2.705303    0.788237
H        2.203679    2.674403   -0.756181
H        2.296435   -2.419304   -0.405432
O       -1.376995   -1.276633    0.025280
C       -2.478578    0.849231   -0.087589
C       -2.542688   -0.718663    0.015871
O       -1.272468    1.302224   -0.148350
O       -3.502728    1.516008   -0.099707
O       -3.614762   -1.299405    0.081767
