15

Pa        0.704265   -0.065503    0.026683
O        1.751984   -1.970396   -0.131241
H       -0.218205   -0.135160    2.653899
O        0.785260    0.256363   -1.792259
O        0.474399   -0.501719    2.095508
O        1.561319    2.486471   -0.211795
H        1.171675    3.171120    0.341672
H        1.314783    2.703584   -1.117038
H        2.049170   -2.354188   -0.958562
O       -1.265255   -1.270855   -0.278337
C       -2.430003    0.772179    0.105469
C       -2.438064   -0.749656   -0.250497
O       -1.247858    1.243574    0.277202
O       -3.473643    1.394522    0.199773
O       -3.485851   -1.332924   -0.468594
