21
C6O14U optimized with ADF in AMS.
U        -0.51787630069203      -0.00683446444550      -0.05772081918451
O        -0.24055282222784      -0.13501004113429       1.69552245037688
O        -0.80982696150630       0.12856882932772      -1.81162340963304
O         4.66022387596661      -0.30780549050308      -1.42047037061774
O         1.78070640509109       0.07790072334648      -0.50965460128411
O         4.56076711721519       1.41649414531524       0.00956026857553
O         2.93205365156853      -0.93745449775539       1.12037915303069
O        -2.42895874577705       1.37478436080780       0.35407119560207
O        -0.05168647379282       2.32934748824988       0.05137748860603
O        -3.31579620171898       3.39656552158771       0.66342946277037
O        -0.74085637566417       4.42865154022737       0.34654430610819
O        -2.39834748291895      -1.47104788853431       0.14016457151262
O        -0.01029431705790      -2.31671925251978      -0.34397462505797
O        -3.24973091927153      -3.53087211429291       0.10380361991145
O        -0.66477674871972      -4.44613858228998      -0.42507426031995
C         4.14227906302486       0.34933588932493      -0.49039930298649
C         2.85749868281809      -0.23008688209979       0.11582860087799
C        -2.37088183975131       2.64405713465132       0.45112781033696
C        -0.93617483536088       3.22063878056081       0.27176146976578
C        -2.31937509366145      -2.73684830643037       0.01447334421591
C        -0.87838866946343      -3.24752688519388      -0.27912835080665
