20

Pa       -0.002329   -0.249675   -0.435999
O        0.013512    1.167287    1.383519
O        1.458070   -1.560446    0.909517
O        2.316183    0.198993   -0.769570
O       -1.460568   -1.548283    0.922892
O       -2.321193    0.204118   -0.761757
O       -0.006598    2.084868   -1.036004
O       -0.006947   -1.476194   -1.843082
C       -2.747291   -1.491529    0.864778
C       -3.271480   -0.431603   -0.167465
O       -4.470682   -0.267211   -0.344855
O       -3.528387   -2.166227    1.521299
C        2.744560   -1.502394    0.850754
C        3.267276   -0.438755   -0.178532
O        3.526777   -2.178361    1.504742
O        4.466206   -0.273537   -0.356823
C       -0.004972    3.016708   -0.150800
C        0.024085    2.469559    1.321129
O       -0.023185    4.221957   -0.355500
O        0.054168    3.216597    2.280213
