20

Pa        0.000000   -0.405462   -0.000000
O        0.312688    1.886993    0.000000
O       -1.855930   -0.187534    1.495422
O        0.561945   -0.412856    2.344884
O       -1.855930   -0.187534   -1.495422
O        0.561945   -0.412856   -2.344884
O        2.306387    0.234636    0.000000
O        0.066089   -2.265873   -0.000000
C       -1.784191   -0.264043   -2.779811
C       -0.300192   -0.424762   -3.298825
O       -0.062247   -0.543196   -4.498060
O       -2.727587   -0.222182   -3.563786
C       -1.784191   -0.264043    2.779811
C       -0.300192   -0.424762    3.298825
O       -2.727587   -0.222182    3.563786
O       -0.062247   -0.543196    4.498060
C        2.686025    1.461673    0.000000
C        1.474901    2.479602    0.000000
O        3.838516    1.878900    0.000000
O        1.649885    3.686304    0.000000
