20

Pa       -0.002624   -0.249485   -0.423361
O        0.013776    1.159804    1.379365
O        1.455208   -1.548517    0.908668
O        2.298044    0.195018   -0.778709
O       -1.459792   -1.534675    0.922054
O       -2.303435    0.203825   -0.769523
O       -0.004101    2.064344   -1.033195
O       -0.008381   -1.469336   -1.821635
C       -2.743219   -1.480434    0.853785
C       -3.257148   -0.426594   -0.181831
O       -4.453156   -0.260716   -0.368144
O       -3.527447   -2.154073    1.504491
C        2.738463   -1.493901    0.840000
C        3.251938   -0.437546   -0.193382
O        3.523173   -2.168824    1.488890
O        4.447837   -0.271743   -0.380283
C       -0.002055    2.998558   -0.154782
C        0.025980    2.459135    1.314070
O       -0.019151    4.201145   -0.364646
O        0.056804    3.207221    2.270004
