20

Pa        0.000000   -0.398268    0.000000
O        0.254958    1.903024   -0.000000
O       -1.844708   -0.194785    1.507590
O        0.588803   -0.447977    2.333272
O       -1.844708   -0.194785   -1.507590
O        0.588803   -0.447977   -2.333272
O        2.296991    0.291333   -0.000000
O        0.053730   -2.271972    0.000000
C       -1.762515   -0.293738   -2.800008
C       -0.270732   -0.471758   -3.303464
O       -0.016510   -0.611644   -4.508195
O       -2.708596   -0.257866   -3.598154
C       -1.762515   -0.293738    2.800008
C       -0.270732   -0.471758    3.303464
O       -2.708596   -0.257866    3.598154
O       -0.016510   -0.611644    4.508195
C        2.650238    1.536150   -0.000000
C        1.411939    2.527332   -0.000000
O        3.803409    1.983819   -0.000000
O        1.556249    3.749332   -0.000000
