20

Pa       -0.003391   -0.257196   -0.436488
O        0.014928    1.133010    1.370617
O        1.443936   -1.550875    0.897695
O        2.288374    0.206063   -0.769539
O       -1.452542   -1.532291    0.912842
O       -2.294290    0.220121   -0.759759
O       -0.000554    2.050191   -1.033261
O       -0.010607   -1.471662   -1.830499
C       -2.732954   -1.458639    0.863084
C       -3.245750   -0.398674   -0.162205
O       -4.440030   -0.219929   -0.331980
O       -3.517455   -2.119227    1.522579
C        2.724310   -1.478507    0.848454
C        3.238766   -0.416207   -0.173667
O        3.507992   -2.141768    1.506321
O        4.433326   -0.238848   -0.342773
C        0.004123    2.976436   -0.150262
C        0.029643    2.429288    1.312482
O       -0.008913    4.178456   -0.350471
O        0.060810    3.172091    2.269870
