20

Pa        0.000084   -0.213817   -0.338023
O       -0.000203    1.249570    1.423644
O        1.483580   -1.652737    0.827374
O        2.320552    0.257579   -0.652413
O       -1.482763   -1.651426    0.829498
O       -2.320642    0.254617   -0.655328
O       -0.001598    2.059528   -1.018682
O        0.001311   -1.148025   -1.927236
C       -2.760592   -1.635381    0.718419
C       -3.272559   -0.477337   -0.211472
O       -4.466946   -0.343428   -0.446061
O       -3.545043   -2.407738    1.252672
C        2.761382   -1.635666    0.716580
C        3.272830   -0.474963   -0.210253
O        3.546194   -2.409138    1.248718
O        4.467216   -0.339419   -0.443866
C       -0.001391    3.027950   -0.183656
C       -0.000427    2.543222    1.311839
O       -0.001978    4.222982   -0.438898
O       -0.000068    3.328940    2.239493
