20

Pa        0.003737   -0.250183   -0.444550
O       -0.015455    1.111068    1.373860
O        1.432716   -1.553525    0.908221
O        2.300237    0.256624   -0.732588
O       -1.426617   -1.586151    0.874913
O       -2.293135    0.255009   -0.732091
O        0.007272    2.059416   -1.044890
O        0.009897   -1.455613   -1.856808
C       -2.717204   -1.507808    0.823625
C       -3.238889   -0.401785   -0.143118
O       -4.445690   -0.218306   -0.287087
O       -3.507540   -2.209418    1.450863
C        2.723501   -1.473244    0.859433
C        3.245682   -0.397376   -0.140331
O        3.513316   -2.151443    1.512472
O        4.452594   -0.232357   -0.304224
C        0.001054    2.978139   -0.139334
C       -0.033779    2.420638    1.317008
O        0.019276    4.192357   -0.323126
O       -0.074656    3.164246    2.284279
