7
Cl4O2U optimized with ADF in AMS.
U         0.00000000000000      -0.00000000000000       0.00000000000000
O         0.00000000000000      -0.00000000000000       1.77089624025296
O         0.00000000000000      -0.00000000000000      -1.77089624025296
Cl        0.00000000000000       2.67442811474524       0.00000000000000
Cl       -0.00000000000000      -2.67442811474524       0.00000000000000
Cl        2.67442811474524      -0.00000000000000       0.00000000000000
Cl       -2.67442811474524       0.00000000000000       0.00000000000000
