7
Cl4O2U optimized with ADF in AMS.
U        -0.00000000000000      -0.00000000000000       0.00000000000000
O         0.00000000000000       0.00000000000000       1.76601429864083
O         0.00000000000000       0.00000000000000      -1.76601429864083
Cl        0.00000000000000       2.68591188521808       0.00000000000000
Cl       -0.00000000000000      -2.68591188521808       0.00000000000000
Cl        2.68591188521808      -0.00000000000000       0.00000000000000
Cl       -2.68591188521808       0.00000000000000       0.00000000000000
