15
C2H4O8Pa optimized with ADF in AMS.
Pa        0.46984607157291       0.68944670423372      -0.13134376020060
O         2.56479314560449       0.81394457357667      -0.68162038564692
H        -0.87090599038610       1.45656686950386      -2.51110363693984
O         0.79972038971014      -0.02187587378059       1.55994011221767
O        -0.03977809757161       1.16411167681808      -2.12239312986455
O        -0.47960768003633      -1.54880932577453      -0.71358713691454
H        -0.94580955670515      -1.77491029622849      -1.52497500652121
H        -0.64008248550667      -2.26243881899966      -0.08782356640485
H         3.28780843576756       0.58350982176350      -0.09214478604800
O         0.24556241756965       2.90237300857662       0.56789278745402
C        -2.06926479995703       2.42671865378817       0.88586039665052
C        -0.86634960630928       3.41829237038288       0.95243862299776
O        -1.74510645707424       1.26024950163823       0.46420953946371
O        -3.18705849807667       2.78905980020625       1.21493179478911
O        -1.02769533282323       4.56328536103150       1.33883743138273
