15
C2H4O8Pa optimized with ADF in AMS.
Pa        0.65505890225121       0.19155089412230      -0.21153572746899
O         0.84334143444408       1.21576987673645      -2.12096678149624
H         0.49132353969429       2.06086799658278      -2.40949051989446
O        -0.27309214612610       1.57581447572279       0.61985284913049
H         0.14754274126921      -2.26690596780421       1.29125173611149
O        -1.05514023892690      -1.42639438978954      -1.58324772795526
H        -0.40514253296748      -1.90514648675179      -2.11492111118638
O        -0.31480231152937      -1.48523943862034       0.97569692538198
O         4.88931449361837      -0.58831011817508       0.57986814348426
O         2.79602563985022       0.23939673446561       0.59400162126764
O         1.93511051008335      -1.47659360673164      -1.11636469953267
C         3.74043713564813      -0.58807699617584       0.20716639474671
C         3.21192884008731      -1.65046650006742      -0.83904102941625
O         3.92234813757307      -2.51217881636482      -1.29753003513407
H        -1.03644973335415      -1.85271069496520      -0.69497426173776
