15
C2H4O8Pa optimized with ADF in AMS.
Pa        0.64346781374487       0.19831420011389      -0.21261179576818
O         0.83997482597527       1.22754324263145      -2.10101518561386
H         0.47937601252788       2.07018040343811      -2.37602887399087
O        -0.28629899860873       1.56735238335143       0.59759603015033
H         0.15934547368584      -2.23678648889364       1.26143695954267
O        -0.97612646839345      -1.44640992008387      -1.58339913923166
H        -0.27389792110948      -1.91021862762743      -2.05457635078303
O        -0.32894941101614      -1.46396044059960       0.97234066101017
O         4.85532865003598      -0.61079270828536       0.55041290635333
O         2.77677135707552       0.22807413407298       0.57656298444604
O         1.89823626259875      -1.47183794680818      -1.11505165358947
C         3.70686039334932      -0.60138108088059       0.18804224591879
C         3.16760834324641      -1.65565353134364      -0.84395068661541
O         3.86536791339936      -2.52365550338022      -1.29975719435932
H        -0.97925983489618      -1.83939115352128      -0.68023513116903
