15
C2H4O8Pa optimized with ADF in AMS.
Pa        0.47527541053300       0.68340681851209      -0.13847615371853
O         2.57709414824667       0.82320674580996      -0.68188402062464
H        -0.86154779519713       1.47341981713533      -2.50594652508097
O         0.80929642401366      -0.01423247352116       1.55354996187769
O        -0.02732326837816       1.16900227951659      -2.13231457652826
O        -0.48338034696829      -1.56197528501711      -0.71225519638805
H        -0.96936962175088      -1.77959949908220      -1.51433780739322
H        -0.66559925119308      -2.26096653183499      -0.07587851583993
H         3.29895421788278       0.59895518011288      -0.08842656584055
O         0.24405796248526       2.90104136242452       0.56293458257503
C        -2.06979562043307       2.42045276049861       0.88349213864094
C        -0.86764108408368       3.41311362535840       0.95158937796216
O        -1.74619772092536       1.25565508161544       0.45808092819849
O        -3.18747834575449       2.78156079270218       1.21561058873870
O        -1.03027315357543       4.55648335570938       1.34338105966471
