20
C6O13Pa optimized with ADF in AMS.
 Pa      -1.88785274633999       0.69986410484465       0.58679328367386
 O       -2.20509265156007      -1.58843487540979       0.77171693634777
 O       -0.18765877146828       0.34751532431927      -1.06481521139887
 O        0.33893307111191       0.36958303920272       1.45700566590063
 O       -3.11468050184558       0.73147316401606      -1.46891797244526
 O       -4.27191166271127       0.97404248064453       0.81854730679136
 O       -2.28700707023317      -0.02349203387008       2.83591226093878
 O       -1.66785296039612       2.55197017331222       0.75427442574559
 C       -4.38188119282374       0.94485697464335      -1.57252862946130
 C       -5.08745439588033       1.12159818060681      -0.16560195871666
 O       -6.28856780388602       1.37279391867812      -0.08992831134730
 O       -5.02506543803479       1.01455844429515      -2.61685825241670
 C        1.07175152387689       0.22501845657669      -0.81767240792624
 C        1.39654159379474       0.26373127345811       0.73205030995355
 O        1.96687146121662       0.09079013930468      -1.64848866378613
 O        2.55647420209221       0.19572610875590       1.13411881263536
 C       -2.47334316264544      -1.25651309884939       3.14777812958595
 C       -2.42642122356168      -2.22266080955657       1.89076244948450
 O       -2.67264621636513      -1.71468602642263       4.26817153413845
 O       -2.58535804670454      -3.42771593868023       1.99985029017089
