20
C6O13Pa optimized with ADF in AMS.
Pa       -1.88581647127716       0.80240730429994       0.63319546028544
O        -2.18379812337908      -1.47714552683520       0.70626039850715
O        -0.23963108250326       0.36686301327567      -1.03104056151828
O         0.31788210021481       0.47510061085857       1.49407368220188
O        -3.07263614046440       0.74967666546059      -1.42801457157661
O        -4.24424150105191       1.06970814309935       0.85574789572830
O        -2.28504133323859       0.00094891468817       2.83566319768149
O        -1.65151409578499       2.66648768854197       0.72679256884301
C        -4.35003484317418       0.89089813695497      -1.52356652783343
C        -5.05806092422310       1.09133659110284      -0.14144608273295
O        -6.27236543752494       1.24547951431992      -0.07763346948830
O        -4.99876407134917       0.87646677681562      -2.56283299375082
C         1.00710664322971       0.16832791271110      -0.77219880808468
C         1.34520792525673       0.24246858258150       0.75483221028833
O         1.88441087227118      -0.06183830453002      -1.59615661766324
O         2.49558663013858       0.08265400053184       1.14774943102687
C        -2.45280479385343      -1.25130271112661       3.08402870431983
C        -2.39974083181042      -2.15238295434534       1.80122894150567
O        -2.63898502088298      -1.75780076600761       4.18170561300709
O        -2.54898148532092      -3.35833459265811       1.86378152498974
