20
C6O13Pa optimized with ADF in AMS.
Pa       -1.88702029729543       0.79336752105577       0.63088497894896
O        -2.18596240891671      -1.48983943974502       0.71097876683742
O        -0.23417662835468       0.35789970727131      -1.03363792369516
O         0.32211364800586       0.47574051790662       1.49360888026884
O        -3.07983026394160       0.74093763756182      -1.43222319590152
O        -4.24837838999499       1.07324014926582       0.85387697500799
O        -2.28763852864503      -0.00653335571432       2.83911885273195
O        -1.65117539055589       2.65493919602379       0.71378467391700
C        -4.35568183566383       0.89420202890833      -1.52618715520362
C        -5.06130717174488       1.10253419352286      -0.14357629444511
O        -6.27421733572498       1.26901022280860      -0.08038227133099
O        -5.00602371017266       0.88528515673343      -2.56477272236624
C         1.01382891537600       0.17169709056977      -0.77319073121194
C         1.35075230735842       0.25043041263582       0.75427533024139
O         1.89448940768492      -0.05094665868125      -1.59598070240096
O         2.50264146912346       0.09986451319817       1.14703618833177
C        -2.45434521521589      -1.25816454782380       3.08922403324504
C        -2.40100886426731      -2.16202518311339       1.80802322627705
O        -2.64000489196778      -1.76356819267531       4.18775323775009
O        -2.54927680745075      -3.36805196983945       1.87355585086630
