20
C6O13Pa optimized with ADF in AMS.
Pa       -1.88727110428129       0.80469565978187       0.63307717300779
O        -2.17552957950957      -1.45294169908845       0.69428697953540
O        -0.25747324817858       0.35551243537315      -1.01392716052171
O         0.29478902764163       0.48955524865629       1.49219287869754
O        -3.06506705389206       0.73940901213429      -1.40955008736106
O        -4.22342447940802       1.07447838019658       0.86025006318561
O        -2.28248894792284       0.00381610041914       2.81530112838093
O        -1.65351412456816       2.65051164889670       0.70607165757156
C        -4.33582717045936       0.88083723066046      -1.50393175598963
C        -5.03664259696143       1.08896596018186      -0.12936243397526
O        -6.24641420317080       1.24222697205451      -0.06517348458331
O        -4.98553641903956       0.86191031340668      -2.53719814551836
C         0.98202876715232       0.15445470575424      -0.75530136362878
C         1.31777663535696       0.24527985128452       0.76177431931049
O         1.85589793919553      -0.08941210087441      -1.57227647519189
O         2.46331978561455       0.08671610464615       1.15504020297674
C        -2.44648604927567      -1.24330191323069       3.05782431818486
C        -2.38741932106521      -2.13268945444816       1.77899494833727
O        -2.63370685441604      -1.75461274848378       4.14813703685744
O        -2.52923299517621      -3.33539270745139       1.83594019859263
